<?xml version="1.0" encoding="UTF-8"?>

<!-- generated on 2026-06-09T14:22:47.626896+01:00 by Eclipse SUMO sumo 1.25.0
-->

<sumoConfiguration xmlns:xsi="http://www.w3.org/2001/XMLSchema-instance" xsi:noNamespaceSchemaLocation="http://sumo.dlr.de/xsd/sumoConfiguration.xsd">

    <input>
        <net-file value="net.net.xml"/>
        <route-files value="ltr.rou.xml"/>
        <junction-taz value="true"/>
    </input>

</sumoConfiguration>
