<?xml version="1.0" encoding="UTF-8"?>

<!-- generated on 2026-06-08T16:23:07.225695+01:00 by Eclipse SUMO netedit 1.25.0
-->

<routes xmlns:xsi="http://www.w3.org/2001/XMLSchema-instance" xsi:noNamespaceSchemaLocation="http://sumo.dlr.de/xsd/routes_file.xsd">
    <!-- Vehicles, persons and containers (sorted by depart) -->
    <flow id="f_0" begin="0.00" end="3600.00" perHour="900.00" fromJunction="A4" toJunction="H4"/>
    <flow id="f_1" begin="0.00" end="3600.00" perHour="900.00" fromJunction="A3" toJunction="H3"/>
</routes>
